Version 4
SHEET 1 1752 732
WIRE 320 96 304 96
WIRE 416 96 400 96
WIRE -304 112 -304 96
WIRE -208 112 -304 112
WIRE -304 128 -304 112
WIRE -208 128 -208 112
WIRE 0 128 -48 128
WIRE 96 128 64 128
WIRE 848 128 736 128
WIRE 704 192 656 192
WIRE 800 192 704 192
WIRE 848 192 800 192
WIRE -144 208 -160 208
WIRE -48 208 -48 128
WIRE -48 208 -64 208
WIRE -32 208 -48 208
WIRE 368 208 368 192
WIRE 704 208 704 192
WIRE 96 224 96 128
WIRE 96 224 32 224
WIRE 144 224 96 224
WIRE 208 224 144 224
WIRE 304 224 304 96
WIRE 304 224 288 224
WIRE 336 224 304 224
WIRE -32 240 -48 240
WIRE 416 240 416 96
WIRE 416 240 400 240
WIRE 336 256 272 256
WIRE 368 304 368 272
WIRE -48 320 -48 240
WIRE 1216 320 1072 320
WIRE 272 336 272 256
WIRE 832 432 704 432
WIRE 704 448 704 432
WIRE 832 448 832 432
WIRE 848 448 832 448
WIRE -160 464 -160 208
WIRE 416 464 416 240
WIRE 416 464 -160 464
WIRE 704 496 704 448
WIRE 848 512 784 512
WIRE 1216 640 1072 640
FLAG -208 128 0
FLAG -304 16 +VCC
FLAG -304 208 -VCC
FLAG 368 304 +VCC
FLAG 0 192 +VCC
FLAG 848 256 +VCC
FLAG 848 320 -VCC
FLAG 736 128 TR
FLAG 704 288 0
FLAG 576 192 +VCC
FLAG 1072 256 -VCC
FLAG 1216 240 +VCC
FLAG 144 224 TR
FLAG 416 240 OUT
FLAG 368 192 0
FLAG 0 256 0
FLAG -48 400 +VCC
FLAG 32 320 0
FLAG 192 336 0
FLAG 272 416 +VCC
FLAG 800 192 INV
FLAG 704 576 0
FLAG 624 448 +VCC
FLAG 784 512 TR
FLAG 848 576 +VCC
FLAG 848 640 -VCC
FLAG 1072 576 -VCC
FLAG 1216 560 +VCC
SYMBOL Opamps\\opamp2 368 304 M180
SYMATTR InstName U2
SYMATTR Value TL082
SYMATTR SpiceModel TL082
SYMBOL cap 64 112 R90
WINDOW 0 0 32 VBottom 2
WINDOW 3 32 32 VTop 2
SYMATTR InstName C1
SYMATTR Value 100n
SYMBOL res 304 208 R90
WINDOW 0 0 56 VBottom 2
WINDOW 3 32 56 VTop 2
SYMATTR InstName R2
SYMATTR Value 1K
SYMBOL res 416 80 R90
WINDOW 0 0 56 VBottom 2
WINDOW 3 32 56 VTop 2
SYMATTR InstName R3
SYMATTR Value 1k
SYMBOL Misc\\battery -304 0 R0
WINDOW 123 0 0 Left 0
WINDOW 39 0 0 Left 0
SYMATTR InstName V1
SYMATTR Value 10
SYMBOL Misc\\battery -304 112 R0
WINDOW 123 0 0 Left 0
WINDOW 39 0 0 Left 0
SYMATTR InstName V2
SYMATTR Value 10
SYMBOL res -48 192 R90
WINDOW 0 0 56 VBottom 2
WINDOW 3 32 56 VTop 2
SYMATTR InstName R1
SYMATTR Value 10k
SYMBOL Opamps\\opamp2 0 160 R0
SYMATTR InstName U1
SYMATTR Value TL082
SYMBOL Misc\\DIP6 960 224 R0
WINDOW 3 0 -116 Center 2
SYMATTR Value LM111
SYMATTR InstName U3
SYMBOL res 688 192 R0
SYMATTR InstName R4
SYMATTR Value 1400
SYMBOL res 672 176 R90
WINDOW 0 0 56 VBottom 2
WINDOW 3 32 56 VTop 2
SYMATTR InstName R5
SYMATTR Value 600
SYMBOL res 1200 224 R0
SYMATTR InstName R6
SYMATTR Value 1K
SYMBOL res 48 304 R90
WINDOW 0 0 56 VBottom 2
WINDOW 3 32 56 VTop 2
SYMATTR InstName R7
SYMATTR Value 1K
SYMBOL res -32 416 R180
WINDOW 0 36 76 Left 2
WINDOW 3 36 40 Left 2
SYMATTR InstName R8
SYMATTR Value 1K
SYMBOL res 176 352 R270
WINDOW 0 32 56 VTop 2
WINDOW 3 0 56 VBottom 2
SYMATTR InstName R9
SYMATTR Value 1K
SYMBOL res 256 320 R0
SYMATTR InstName R10
SYMATTR Value 1K
SYMBOL Misc\\DIP6 960 544 R0
WINDOW 3 0 -116 Center 2
SYMATTR InstName U4
SYMATTR Value LM111
SYMBOL res 720 432 R90
WINDOW 0 0 56 VBottom 2
WINDOW 3 32 56 VTop 2
SYMATTR InstName R11
SYMATTR Value 1K
SYMBOL res 720 592 R180
WINDOW 0 36 76 Left 2
WINDOW 3 36 40 Left 2
SYMATTR InstName R12
SYMATTR Value 1K
SYMBOL res 1200 544 R0
SYMATTR InstName R13
SYMATTR Value 10K
TEXT -72 -40 Left 2 !.inc "C:\\Users\\joa-m\\INFORMES_ASSD\\TP1\\EJ1\\ConOpAmps\\TL082.301"
TEXT -336 472 Left 2 !.tran 0 100m 0 1m
TEXT 104 24 Left 2 !.inc "opamp.sub"
TEXT -72 -88 Left 2 !.inc "C:\\Users\\joa-m\\INFORMES_ASSD\\TP1\\EJ1\\ConOpAmps\\LM111.301"
