Version 4
SHEET 1 1272 680
WIRE 320 96 304 96
WIRE 416 96 400 96
WIRE -304 112 -304 96
WIRE -208 112 -304 112
WIRE -304 128 -304 112
WIRE -208 128 -208 112
WIRE 0 128 -48 128
WIRE 96 128 64 128
WIRE 848 128 736 128
WIRE 704 192 656 192
WIRE 848 192 704 192
WIRE -144 208 -160 208
WIRE -48 208 -48 128
WIRE -48 208 -64 208
WIRE -32 208 -48 208
WIRE 368 208 368 192
WIRE 704 208 704 192
WIRE 96 224 96 128
WIRE 96 224 32 224
WIRE 144 224 96 224
WIRE 208 224 144 224
WIRE 304 224 304 96
WIRE 304 224 288 224
WIRE 336 224 304 224
WIRE -32 240 -48 240
WIRE 416 240 416 96
WIRE 416 240 400 240
WIRE 336 256 304 256
WIRE 304 304 304 256
WIRE 304 304 288 304
WIRE 368 304 368 272
WIRE -48 320 -48 240
WIRE 64 320 32 320
WIRE 1216 320 1072 320
WIRE -48 336 -48 320
WIRE 64 336 64 320
WIRE 304 336 304 304
WIRE -160 464 -160 208
WIRE 416 464 416 240
WIRE 416 464 -160 464
FLAG -208 128 0
FLAG -304 16 +VCC
FLAG -304 208 -VCC
FLAG 368 304 +VCC
FLAG 368 192 0
FLAG 0 192 +VCC
FLAG 0 256 0
FLAG 848 256 +VCC
FLAG 848 320 -VCC
FLAG 736 128 TR
FLAG 704 288 0
FLAG 576 192 +VCC
FLAG 1072 256 -VCC
FLAG 1216 240 +VCC
FLAG 144 224 TR
FLAG -48 416 +VCC
FLAG 64 336 0
FLAG 304 416 0
FLAG 208 304 +VCC
SYMBOL Opamps\\opamp2 368 304 M180
SYMATTR InstName U2
SYMATTR Value TL082
SYMATTR SpiceModel TL082
SYMBOL cap 64 112 R90
WINDOW 0 0 32 VBottom 2
WINDOW 3 32 32 VTop 2
SYMATTR InstName C1
SYMATTR Value 100n
SYMBOL res 304 208 R90
WINDOW 0 0 56 VBottom 2
WINDOW 3 32 56 VTop 2
SYMATTR InstName R2
SYMATTR Value 1K
SYMBOL res 416 80 R90
WINDOW 0 0 56 VBottom 2
WINDOW 3 32 56 VTop 2
SYMATTR InstName R3
SYMATTR Value 1K
SYMBOL Misc\\battery -304 0 R0
WINDOW 123 0 0 Left 0
WINDOW 39 0 0 Left 0
SYMATTR InstName V1
SYMATTR Value 15
SYMBOL Misc\\battery -304 112 R0
WINDOW 123 0 0 Left 0
WINDOW 39 0 0 Left 0
SYMATTR InstName V2
SYMATTR Value 15
SYMBOL res -48 192 R90
WINDOW 0 0 56 VBottom 2
WINDOW 3 32 56 VTop 2
SYMATTR InstName R1
SYMATTR Value 10k
SYMBOL Opamps\\opamp2 0 160 R0
SYMATTR InstName U1
SYMATTR Value TL082
SYMBOL Misc\\DIP6 960 224 R0
WINDOW 3 0 -116 Center 2
SYMATTR InstName U3
SYMATTR Value LM111
SYMBOL res 688 192 R0
SYMATTR InstName R4
SYMATTR Value 1000
SYMBOL res 672 176 R90
WINDOW 0 0 56 VBottom 2
WINDOW 3 32 56 VTop 2
SYMATTR InstName R5
SYMATTR Value 2000
SYMBOL res 1200 224 R0
SYMATTR InstName R6
SYMATTR Value 1K
SYMBOL res 48 304 R90
WINDOW 0 0 56 VBottom 2
WINDOW 3 32 56 VTop 2
SYMATTR InstName R7
SYMATTR Value 1K
SYMBOL res -32 432 R180
WINDOW 0 36 76 Left 2
WINDOW 3 36 40 Left 2
SYMATTR InstName R8
SYMATTR Value 1K
SYMBOL res 304 288 R90
WINDOW 0 0 56 VBottom 2
WINDOW 3 32 56 VTop 2
SYMATTR InstName R9
SYMATTR Value 1K
SYMBOL res 320 432 R180
WINDOW 0 36 76 Left 2
WINDOW 3 36 40 Left 2
SYMATTR InstName R10
SYMATTR Value 1K
TEXT -72 -40 Left 2 !.inc "C:\\Users\\joa-m\\INFORMES_ASSD\\TP1\\EJ1\\ConOpAmps\\TL082.301"
TEXT -338 470 Left 2 !.tran 0 100m 0 1m
TEXT 104 24 Left 2 !.inc "opamp.sub"
TEXT -32 -88 Left 2 !.inc "C:\\Users\\joa-m\\INFORMES_ASSD\\TP1\\EJ1\\ConOpAmps\\LM111.301"
