Version 4
SHEET 1 2020 1156
WIRE 1008 -80 928 -80
WIRE 928 -48 928 -80
WIRE 304 32 80 32
WIRE 512 32 304 32
WIRE 256 96 208 96
WIRE 1072 176 1040 176
WIRE 1184 176 1152 176
WIRE 1296 176 1184 176
WIRE 1376 176 1296 176
WIRE 1184 192 1184 176
WIRE 208 208 208 96
WIRE 304 208 208 208
WIRE 448 208 304 208
WIRE 576 208 512 208
WIRE 304 240 304 208
WIRE 1376 240 1360 240
WIRE 560 288 512 288
WIRE 1680 304 1600 304
WIRE 1952 304 1952 224
WIRE 1952 304 1856 304
WIRE 512 320 512 288
WIRE 80 336 80 32
WIRE 560 352 560 288
WIRE 592 352 560 352
WIRE 304 368 304 304
WIRE 304 368 128 368
WIRE 400 368 304 368
WIRE 448 368 400 368
WIRE 688 368 448 368
WIRE 1856 368 1856 304
WIRE 1856 368 1600 368
WIRE 304 400 304 368
WIRE 448 416 448 368
WIRE 592 416 448 416
WIRE 864 416 816 416
WIRE 80 432 -32 432
WIRE 864 448 864 416
WIRE 864 448 400 448
WIRE 80 464 80 432
WIRE 576 480 576 208
WIRE 592 480 576 480
WIRE 688 480 688 368
WIRE 816 480 688 480
WIRE 864 544 816 544
WIRE 80 560 80 544
WIRE 192 560 80 560
WIRE 304 560 304 464
WIRE 304 560 192 560
WIRE 192 592 192 560
WIRE 240 704 0 704
WIRE 0 768 0 704
WIRE 240 768 240 704
WIRE 592 832 368 832
WIRE 864 832 816 832
WIRE 0 896 0 832
WIRE 176 896 0 896
WIRE 480 896 448 896
WIRE 592 896 480 896
WIRE 848 896 816 896
WIRE 0 944 0 896
WIRE 240 960 240 944
WIRE 256 960 240 960
WIRE 448 960 448 896
WIRE 448 960 256 960
WIRE 592 960 576 960
WIRE 928 960 928 896
WIRE 928 960 816 960
WIRE 240 976 240 960
WIRE 592 1024 528 1024
WIRE 864 1024 816 1024
WIRE 0 1072 0 1024
WIRE 208 1072 0 1072
WIRE 240 1072 240 1040
WIRE 240 1072 208 1072
WIRE 368 1072 368 832
WIRE 368 1072 240 1072
WIRE 576 1104 576 960
WIRE 656 1104 576 1104
WIRE 864 1104 864 1024
WIRE 864 1104 720 1104
WIRE 208 1120 208 1072
WIRE 480 1152 480 896
WIRE 928 1152 928 960
WIRE 928 1152 480 1152
FLAG 1008 -160 +VCC
FLAG 816 352 +VCC
FLAG 592 544 +VCC
FLAG 192 592 0
FLAG 512 320 0
FLAG 864 608 0
FLAG 512 32 +VCC
FLAG -32 432 TR
FLAG 1360 240 TR
FLAG 1952 144 +VCC
FLAG 1680 304 -VCC
FLAG 1376 304 +VCC
FLAG 1376 368 -VCC
FLAG 1296 176 RF
FLAG 1040 176 +VCC
FLAG 1184 272 0
FLAG 1008 0 -VCC
FLAG 928 -48 0
FLAG 864 832 +VCC
FLAG 240 704 +VCC
FLAG 528 1024 +VCC
FLAG 208 1120 0
FLAG 256 960 cap
SYMBOL Misc\\NE555 704 448 R0
SYMATTR InstName U1
SYMBOL Misc\\battery 1008 -176 R0
WINDOW 123 0 0 Left 0
WINDOW 39 0 0 Left 0
SYMATTR InstName V1
SYMATTR Value 15V
SYMBOL njf 256 32 R0
SYMATTR InstName J1
SYMATTR Value 2N4393
SYMBOL njf 128 432 R180
SYMATTR InstName J2
SYMATTR Value 2N4393
SYMBOL res 288 112 R0
SYMATTR InstName R1
SYMATTR Value 2k
SYMBOL diode 448 224 R270
WINDOW 0 32 32 VTop 2
WINDOW 3 0 32 VBottom 2
SYMATTR InstName D1
SYMATTR Value 1N4148
SYMBOL diode 288 240 R0
SYMATTR InstName D2
SYMATTR Value 1N4148
SYMBOL cap 288 400 R0
SYMATTR InstName C1
SYMATTR Value 0.01µ
SYMBOL res 64 448 R0
SYMATTR InstName R2
SYMATTR Value 10k
SYMBOL res 416 464 R180
WINDOW 0 36 76 Left 2
WINDOW 3 36 40 Left 2
SYMATTR InstName R3
SYMATTR Value 10k
SYMBOL cap 848 544 R0
SYMATTR InstName C2
SYMATTR Value 0.01µ
SYMBOL res 1936 128 R0
SYMATTR InstName RL
SYMATTR Value 20k
SYMBOL Misc\\DIP6 1488 272 R0
WINDOW 3 0 -116 Center 2
SYMATTR Value LM111
SYMATTR InstName U3
SYMBOL res 1168 160 R90
WINDOW 0 0 56 VBottom 2
WINDOW 3 32 56 VTop 2
SYMATTR InstName R4
SYMATTR Value 900
SYMBOL res 1200 288 R180
WINDOW 0 36 76 Left 2
WINDOW 3 36 40 Left 2
SYMATTR InstName R5
SYMATTR Value 1150
SYMBOL Misc\\battery 1008 -96 R0
WINDOW 123 0 0 Left 0
WINDOW 39 0 0 Left 0
SYMATTR InstName V2
SYMATTR Value 15V
SYMBOL Misc\\NE555 704 928 R0
SYMATTR InstName U2
SYMBOL res 224 752 R0
SYMATTR InstName R6
SYMATTR Value 8000
SYMBOL res -16 928 R0
SYMATTR InstName R7
SYMATTR Value 2.2k
SYMBOL cap 224 976 R0
SYMATTR InstName C3
SYMATTR Value 100pf
SYMBOL diode 720 1088 R90
WINDOW 0 0 32 VBottom 2
WINDOW 3 32 32 VTop 2
SYMATTR InstName D4
SYMATTR Value 1N4148
SYMBOL pnp 176 944 M180
SYMATTR InstName Q1
SYMATTR Value 2N3906
SYMBOL res 944 880 R90
WINDOW 0 0 56 VBottom 2
WINDOW 3 32 56 VTop 2
SYMATTR InstName R8
SYMATTR Value 500
SYMBOL zener 16 832 R180
WINDOW 0 24 64 Left 2
WINDOW 3 24 0 Left 2
SYMATTR InstName D6
SYMATTR Value 1N750
TEXT 312 -272 Left 2 !.inc "C:\\Users\\joa-m\\INFORMES_ASSD\\TP1\\EJ1\\Con555\\TL082.301"
TEXT -24 632 Left 2 !.tran 0 6u 0
TEXT 312 -248 Left 2 !.inc "C:\\Users\\joa-m\\INFORMES_ASSD\\TP1\\EJ1\\Con555\\LM111.301"
